edisgo/opf/eDisGo_OPF.jl/test/ding0_1_t_24.json
{"gen": {}, "gen_nd": {"1": {"pg": 0.0, "qg": -0.0, "pmax": 0.4, "pmin": 0.0, "qmax": -0.0, "qmin": -0.19372884193514103, "P": 0, "Q": 0, "vg": 1, "pf": 0.9, "sign": -1, "mbase": 0.4, "gen_bus": 4, "gen_status": 1, "name": "solar_roof_1", "index": 1}}, "gen_slack": {"1": {"pg": 0.0, "qg": 0.0, "pmax": 0.0, "pmin": 0.0, "qmax": -0.0, "qmin": -0.0, "P": 0, "Q": 0, "vg": 1, "pf": 0.9, "sign": -1, "mbase": 0.0, "gen_bus": 1, "gen_status": 1, "name": "Generator_slack", "index": 1}}, "branch": {"1": {"name": "Line12", "br_r": 2.5e-05, "r": 0.01, "br_x": 1e-05, "f_bus": 1, "t_bus": 2, "g_to": 0.0, "g_fr": 0.0, "b_to": 0.0, "b_fr": 0.0, "shift": 0.0, "br_status": 1.0, "rate_a": 0.2, "rate_b": 250.0, "rate_c": 250.0, "angmin": -0.5235987755982988, "angmax": 0.5235987755982988, "transformer": false, "storage": false, "tap": 1.0, "length": 0.05, "cost": 4.0, "cost_factor": 100, "storage_pf": 0, "index": 1}, "2": {"name": "Line14", "br_r": 1.25e-05, "r": 0.005, "br_x": 5e-06, "f_bus": 1, "t_bus": 4, "g_to": 0.0, "g_fr": 0.0, "b_to": 0.0, "b_fr": 0.0, "shift": 0.0, "br_status": 1.0, "rate_a": 0.4, "rate_b": 250.0, "rate_c": 250.0, "angmin": -0.5235987755982988, "angmax": 0.5235987755982988, "transformer": false, "storage": false, "tap": 1.0, "length": 0.05, "cost": 4.0, "cost_factor": 100, "storage_pf": 0, "index": 2}, "3": {"name": "Line45", "br_r": 2.5e-05, "r": 0.01, "br_x": 1e-05, "f_bus": 4, "t_bus": 5, "g_to": 0.0, "g_fr": 0.0, "b_to": 0.0, "b_fr": 0.0, "shift": 0.0, "br_status": 1.0, "rate_a": 0.1, "rate_b": 250.0, "rate_c": 250.0, "angmin": -0.5235987755982988, "angmax": 0.5235987755982988, "transformer": false, "storage": false, "tap": 1.0, "length": 0.05, "cost": 4.0, "cost_factor": 100, "storage_pf": 0, "index": 3}, "4": {"name": "Transforme", "br_r": 0.2, "r": 0.008, "br_x": 0.4, "f_bus": 2, "t_bus": 3, "g_to": 0.0, "g_fr": 0.0, "b_to": 0.0, "b_fr": 0.0, "shift": 0.0, "br_status": 1.0, "rate_a": 0.04, "rate_b": 250.0, "rate_c": 250.0, "angmin": -0.5235987755982988, "angmax": 0.5235987755982988, "transformer": true, "storage": false, "tap": 1.0, "length": 1.0, "cost": 10.0, "cost_factor": 100, "storage_pf": 0, "index": 4}, "5": {"name": "bss_branch_1", "br_r": 4.25e-05, "r": 0.017, "br_x": 0, "f_bus": 4, "t_bus": 6, "g_to": 0, "g_fr": 0, "b_to": 0, "b_fr": 0, "shift": 0, "br_status": 1.0, "rate_a": 0.4, "rate_b": 250.0, "rate_c": 250.0, "angmin": -0.5235987755982988, "angmax": 0.5235987755982988, "transformer": false, "storage": true, "tap": 1, "length": 1, "cost": 0, "cost_factor": 0, "storage_pf": -0.48432210483785254, "index": 5}}, "bus": {"1": {"index": 1, "bus_i": 1, "zone": 1, "bus_type": 3, "vmax": 1.1, "vmin": 0.9, "va": 0, "vm": 1, "name": "Bus1", "base_kv": 20.0, "grid_level": "mv"}, "2": {"index": 2, "bus_i": 2, "zone": 1, "bus_type": 1, "vmax": 1.1, "vmin": 0.9, "va": 0, "vm": 1, "name": "Bus2", "base_kv": 20.0, "grid_level": "mv"}, "3": {"index": 3, "bus_i": 3, "zone": 1, "bus_type": 1, "vmax": 1.1, "vmin": 0.9, "va": 0, "vm": 1, "name": "Bus3", "base_kv": 0.4, "grid_level": "lv"}, "4": {"index": 4, "bus_i": 4, "zone": 1, "bus_type": 1, "vmax": 1.1, "vmin": 0.9, "va": 0, "vm": 1, "name": "Bus4", "base_kv": 20.0, "grid_level": "mv"}, "5": {"index": 5, "bus_i": 5, "zone": 1, "bus_type": 1, "vmax": 1.1, "vmin": 0.9, "va": 0, "vm": 1, "name": "Bus5", "base_kv": 20.0, "grid_level": "mv"}, "6": {"index": 6, "bus_i": 6, "zone": 1, "bus_type": 1, "vmax": 1.1, "vmin": 0.9, "va": 0, "vm": 1, "name": "Bus5_bss", "base_kv": 20.0, "grid_level": "mv"}}, "dcline": {}, "load": {"1": {"pd": 0.1, "qd": 0.048432210483785, "load_bus": 2, "status": true, "pf": 0.9, "sign": 1, "name": "Load2", "index": 1}, "2": {"pd": 0.01, "qd": 0.0, "load_bus": 2, "status": true, "pf": 0.9, "sign": 1, "name": "Charging_Point_MVGrid_1_public_1", "index": 2}, "3": {"pd": 0.0, "qd": 0.0, "load_bus": 4, "status": true, "pf": 0.9, "sign": 1, "name": "dsm_load_99", "index": 3}, "4": {"pd": 0.0, "qd": 0.0, "load_bus": 3, "status": true, "pf": 0.95, "sign": 1, "name": "Load3", "index": 4}}, "storage": {"1": {"r": 0, "x": 0, "p_loss": 0, "q_loss": 0, "pf": 0.9, "sign": -1, "ps": 0.0, "qs": -0.0, "pmax": 0.4, "pmin": -0.4, "qmax": 0.19372884193514103, "qmin": -0.19372884193514103, "energy": 0.0, "energy_rating": 0.4, "thermal_rating": 100, "charge_rating": 0.4, "discharge_rating": 0.4, "charge_efficiency": 0.9, "discharge_efficiency": 0.9, "storage_bus": 6, "name": "StorageUnit_MVGrid_1_1", "status": true, "index": 1}}, "switch": {}, "electromobility": {"1": {"pd": 0, "qd": 0, "pf": 1.0, "sign": 1, "p_min": 0, "p_max": 0.11, "q_min": 0.0, "q_max": 0.0, "e_min": 0.0, "e_max": 0.1, "energy": 0.05, "cp_bus": 2, "name": "Charging_Point_MVGrid_1_home_1", "index": 1}}, "heatpumps": {"1": {"pd": 0.21, "pf": 1.0, "sign": 1, "p_min": 0, "p_max": 0.11, "q_min": 0.0, "q_max": 0.0, "cop": 3.5, "hp_bus": 5, "name": "Heat_Pump_MVGrid_1_flexible_1", "index": 1}}, "heat_storage": {"1": {"ps": 0, "p_loss": 0.0016666666666666668, "energy": 0.25, "capacity": 0.5, "charge_efficiency": 1.0, "discharge_efficiency": 1.0, "storage_bus": 2, "name": "Heat_Pump_MVGrid_1_flexible_1", "status": true, "index": 1}}, "dsm": {"1": {"pd": 0, "qd": 0, "pf": 0.9, "sign": 1, "energy": 0.0, "p_min": -1.0, "p_max": 1.0, "q_max": 0.48432210483785254, "q_min": -0.48432210483785254, "e_min": -1.2, "e_max": 1.2, "charge_efficiency": 1, "discharge_efficiency": 1, "dsm_bus": 4, "name": "dsm_load_99", "index": 1}}, "HV_requirements": {}, "baseMVA": 1, "source_version": 2, "shunt": {}, "sourcetype": "eDisGo", "per_unit": true, "name": "ding0_1_t_24", "time_series": {"gen": {}, "load": {"1": {"pd": [0.1, 0.1, 0.1, 0.1, 0.1, 0.1, 0.1, 0.1, 0.1, 0.1, 0.1, 0.1, 0.1, 0.1, 0.1, 0.1, 0.1, 0.1, 0.1, 0.1, 0.1, 0.1, 0.1, 0.1], "qd": [0.048432210483785, 0.048432210483785, 0.048432210483785, 0.048432210483785, 0.048432210483785, 0.048432210483785, 0.048432210483785, 0.048432210483785, 0.048432210483785, 0.048432210483785, 0.048432210483785, 0.048432210483785, 0.048432210483785, 0.048432210483785, 0.048432210483785, 0.048432210483785, 0.048432210483785, 0.048432210483785, 0.048432210483785, 0.048432210483785, 0.048432210483785, 0.048432210483785, 0.048432210483785, 0.048432210483785]}, "2": {"pd": [0.01, 0.01, 0.01, 0.01, 0.01, 0.01, 0.01, 0.01, 0.01, 0.01, 0.01, 0.01, 0.01, 0.01, 0.01, 0.01, 0.01, 0.01, 0.01, 0.01, 0.01, 0.01, 0.01, 0.01], "qd": [0.0, 0.0, 0.0, 0.0, 0.0, 0.0, 0.0, 0.0, 0.0, 0.0, 0.0, 0.0, 0.0, 0.0, 0.0, 0.0, 0.0, 0.0, 0.0, 0.0, 0.0, 0.0, 0.0, 0.0]}, "4": {"pd": [0.0, 0.0, 0.0, 0.0, 0.0, 0.0, 0.0, 0.0, 0.0, 0.1, 0.0, 0.0, 0.0, 0.0, 0.0, 0.0, 0.0, 0.0, 0.0, 0.0, 0.0, 0.0, 0.0, 0.0], "qd": [0.0, 0.0, 0.0, 0.0, 0.0, 0.0, 0.0, 0.0, 0.0, 0.032868410517886, 0.0, 0.0, 0.0, 0.0, 0.0, 0.0, 0.0, 0.0, 0.0, 0.0, 0.0, 0.0, 0.0, 0.0]}, "3": {"pd": [0.0, 0.0, 0.0, 0.0, 0.0, 0.2, 0.0, 0.0, 0.2, 0.0, 0.0, 0.0, 0.0, 0.0, 0.0, 0.0, 0.2, 0.0, 0.0, 0.0, 0.0, 0.0, 0.0, 0.0], "qd": [0.0, 0.0, 0.0, 0.0, 0.0, 0.09686442096, 0.0, 0.0, 0.09686442096, 0.0, 0.0, 0.0, 0.0, 0.0, 0.0, 0.0, 0.09686442096, 0.0, 0.0, 0.0, 0.0, 0.0, 0.0, 0.0]}}, "storage": {"1": {"ps": [0.0, 0.0, 0.0, 0.0, 0.0, 0.0, 0.0, 0.0, 0.0, 0.0, -0.3, -0.1599999999999999, 0.0, 0.0, 0.0, 0.0, 0.3555555555555555, -0.3, 0.0, 0.0, 0.0, 0.0, 0.0, 0.0], "qs": [-0.0, -0.0, -0.0, -0.0, -0.0, -0.0, -0.0, -0.0, -0.0, -0.0, 0.1452966314513557, 0.0774915367740563, -0.0, -0.0, -0.0, -0.0, -0.1722034150534586, 0.1452966314513557, -0.0, -0.0, -0.0, -0.0, -0.0, -0.0]}}, "electromobility": {"1": {"p_max": [0.11, 0.11, 0.11, 0.11, 0.11, 0.11, 0.11, 0.11, 0.11, 0.11, 0.11, 0.11, 0.11, 0.11, 0.11, 0.11, 0.11, 0.11, 0.11, 0.11, 0.11, 0.11, 0.11, 0.11], "e_min": [0.0, 0.0, 0.0, 0.0, 0.0, 0.0, 0.0, 0.0, 0.3, 0.3, 0.3, 0.3, 0.3, 0.6, 0.6, 0.6, 0.6, 0.6, 0.9, 0.9, 0.9, 0.9, 1.0, 1.0], "e_max": [0.1, 0.2, 0.2, 0.3, 0.4, 0.5, 0.6, 0.7, 0.8, 0.9, 1.0, 1.0, 1.0, 1.1, 1.2, 1.2, 1.3, 1.3, 1.3, 1.3, 1.3, 1.3, 1.3, 1.3]}}, "heatpumps": {"1": {"pd": [0.21, 0.21, 0.21, 0.21, 0.21, 0.385, 0.385, 0.385, 0.385, 0.21, 0.21, 0.21, 0.21, 0.21, 0.21, 0.21, 0.21, 0.21, 0.21, 0.21, 0.21, 0.21, 0.21, 0.21], "cop": [3.5, 3.5, 3.5, 3.5, 3.5, 3.5, 3.5, 3.5, 3.5, 3.5, 3.5, 3.5, 3.5, 3.5, 3.5, 3.5, 3.5, 3.5, 3.5, 3.5, 3.5, 3.5, 3.5, 3.5]}}, "dsm": {"1": {"p_max": [1.0, 1.0, 1.0, 1.0, 1.0, 1.0, 1.0, 1.0, 1.0, 1.0, 1.0, 1.0, 1.0, 1.0, 1.0, 1.0, 1.0, 1.0, 1.0, 1.0, 1.0, 1.0, 1.0, 1.0], "p_min": [-1.0, -1.0, -1.0, -1.0, -1.0, -1.0, -1.0, -1.0, -1.0, -1.0, -1.0, -1.0, -1.0, -1.0, -1.0, -1.0, -1.0, -1.0, -1.0, -1.0, -1.0, -1.0, -1.0, -1.0], "e_min": [-1.2, -1.2, -1.2, -1.2, -1.2, -1.2, -1.2, -1.2, -1.2, -1.2, -1.2, -1.2, -1.2, -1.2, -1.2, -1.2, -1.2, -1.2, -1.2, -1.2, -1.2, -1.2, -1.2, -1.2], "e_max": [1.2, 1.2, 1.2, 1.2, 1.2, 1.2, 1.2, 1.2, 1.2, 1.2, 1.2, 1.2, 1.2, 1.2, 1.2, 1.2, 1.2, 1.2, 1.2, 1.2, 1.2, 1.2, 1.2, 1.2]}}, "HV_requirements": {}, "num_steps": 24, "gen_nd": {"1": {"pg": [0.0, 0.0, 0.0, 0.0, 0.0, 0.0, 0.0, 0.0, 0.0, 0.0, 0.3, 0.3, 0.3, 0.3, 0.3, 0.3, 0.3, 0.3, 0.0, 0.0, 0.0, 0.0, 0.0, 0.0], "qg": [-0.0, -0.0, -0.0, -0.0, -0.0, -0.0, -0.0, -0.0, -0.0, -0.0, -0.1452966314513557, -0.1452966314513557, -0.1452966314513557, -0.1452966314513557, -0.1452966314513557, -0.1452966314513557, -0.1452966314513557, -0.1452966314513557, -0.0, -0.0, -0.0, -0.0, -0.0, -0.0]}}, "gen_slack": {"1": {"pg": [0.0, 0.0, 0.0, 0.0, 0.0, 0.0, 0.0, 0.0, 0.0, 0.0, 0.0, 0.0, 0.0, 0.0, 0.0, 0.0, 0.0, 0.0, 0.0, 0.0, 0.0, 0.0, 0.0, 0.0], "qg": [0.0, 0.0, 0.0, 0.0, 0.0, 0.0, 0.0, 0.0, 0.0, 0.0, 0.0, 0.0, 0.0, 0.0, 0.0, 0.0, 0.0, 0.0, 0.0, 0.0, 0.0, 0.0, 0.0, 0.0]}}}, "time_elapsed": 1, "flexibilities": ["curt", "cp", "hp", "dsm", "storage"], "opf_version": 4}
